New Linecode.BT_1/0AAAC_AAAC_1/0_1 nphases=2 units=km
~ rmatrix = [ 0.1971 0.194803 | 0.194803 0.192543 ]  
~ xmatrix = [ 0.721362 0.361938 | 0.361938 0.726975 ]  
~ cmatrix = [ 9.49193 -2.80787 | -2.80787 9.330369999999998 ]
~ normamps=205 

New Linecode.BT_1/0AAAC_AAAC_1/0_3 nphases=3 units=km
~ rmatrix = [ 0.712091386 0.059216675 0.059216675 | 0.059216675 0.712091386 0.059216675 | 0.059216675 0.059216675 697364889.0 ]  
~ xmatrix = [ 0.932926708 0.839161795 0.846928935 | 0.839161795 0.932926708 0.846928935 | 0.846928935 0.846928935 0.931683966 ]  
~ normamps=205 

New Linecode.BT_1/0AAAC_AAAC_1/0_4 nphases=3 units=km
~ rmatrix = [ 0.712091386 0.059216675 0.059216675 0.059216675 | 0.059216675 0.712091386 0.059216675 0.059216675 | 0.059216675 0.059216675 0.697364889 0.059216675 | 0.059216675 0.059216675 0.059216675 0.697364889 ]  
~ xmatrix = [ 0.932926708 0.839161795 0.846928935 0.846928935 | 0.839161795 0.932926708 0.846928935 0.846928935 | 0.846928935 0.846928935 0.931683966 0.846928935 | 0.846928935 0.846928935 0.846928935 0.931683966 ]  
~ normamps=205 

New Linecode.BT_1/0AAAC_AAAC_123.3_1 nphases=2 units=km
~ rmatrix = [ 0.172111 0.170071 | 0.170071 0.168067 ]  
~ xmatrix = [ 0.652344 0.293951 | 0.293951 0.660004 ]  
~ cmatrix = [ 9.528929999999999 -2.77357 | -2.77357 9.362169999999999 ]
~ normamps=205 

New Linecode.BT_1/0AAAC_AAAC_123.3_3 nphases=3 units=km
~ rmatrix = [ 0.71224363 0.059229335 0.059229335 | 0.059229335 0.71224363 0.059229335 | 0.059229335 0.059229335 0.697513984 ]  
~ xmatrix = [ 0.933126165 0.839341206 0.847110006 | 0.839341206 0.933126165 0.847110006 | 0.847110006 0.847110006 0.931883157 ]  
~ normamps=205 

New Linecode.BT_1/0AAAC_AAAC_2_1 nphases=2 units=km
~ rmatrix = [ 0.1971 0.194803 | 0.194803 0.192543 ]  
~ xmatrix = [ 0.721362 0.361938 | 0.361938 0.726975 ]  
~ cmatrix = [ 9.49193 -2.80787 | -2.80787 9.330369999999998 ]
~ normamps=205 

New Linecode.BT_1/0AAAC_AAAC_2_3 nphases=3 units=km
~ rmatrix = [ 0.71224363 0.059229335 0.059229335 | 0.059229335 0.71224363 0.059229335 | 0.059229335 0.059229335 0.697513984 ]  
~ xmatrix = [ 0.933126165 0.839341206 0.847110006 | 0.839341206 0.933126165 0.847110006 | 0.847110006 0.847110006 0.931883157 ]  
~ normamps=205 

New Linecode.BT_1/0AAAC_AAAC_2_6 nphases=2 units=km
~ rmatrix = [ 1844308224.0 0.1533704832 0.1533704832 | 0.1533704832 1844308224.0 0.1533704832 | 0.1533704832 0.1533704832 18061667712.0 ]  
~ xmatrix = [ 24162690816.0 2173419072.0 2193535872.0 | 2173419072.0 24162690816.0 2193535872.0 | 2193535872.0 2193535872.0 24130503936.0 ]  
~ normamps=205 

New Linecode.BT_1/0AAAC_AAAC_6_3 nphases=3 units=km
~ rmatrix = [ 0.71224363 0.059229335 0.059229335 | 0.059229335 0.71224363 0.059229335 | 0.059229335 0.059229335 0.697513984 ]  
~ xmatrix = [ 0.933126165 0.839341206 0.847110006 | 0.839341206 0.933126165 0.847110006 | 0.847110006 0.847110006 0.931883157 ]  
~ normamps=205 

New Linecode.BT_1/0AAAC_ACSR_1/0_1 nphases=2 units=km
~ rmatrix = [ 0.159397 0.157563 | 0.157563 0.155761 ]  
~ xmatrix = [ 0.667079 0.308492 | 0.308492 0.674354 ]  
~ cmatrix = [ 9.38972 -2.9026199999999998 | -2.9026199999999998 9.24254 ]
~ normamps=205 

New Linecode.BT_1/0AAAC_ACSR_1/0_3 nphases=3 units=km
~ rmatrix = [ 0.71224363 0.059229335 0.059229335 | 0.059229335 0.71224363 0.059229335 | 0.059229335 0.059229335 0.697513984 ]  
~ xmatrix = [ 0.933126165 0.839341206 0.847110006 | 0.839341206 0.933126165 0.847110006 | 0.847110006 0.847110006 0.931883157 ]  
~ normamps=205 

New Linecode.BT_1/0AAAC_ACSR_2_1 nphases=2 units=km
~ rmatrix = [ 0.18876 0.186603 | 0.186603 0.18448 ]  
~ xmatrix = [ 0.734864 0.375257 | 0.375257 0.740114 ]  
~ cmatrix = [ 9.38201 -2.90976 | -2.90976 9.23591 ]
~ normamps=205 

New Linecode.BT_1/0AAAC_ACSR_2_3 nphases=3 units=km
~ rmatrix = [ 0.71224363 0.059229335 0.059229335 | 0.059229335 0.71224363 0.059229335 | 0.059229335 0.059229335 0.697513984 ]  
~ xmatrix = [ 0.933126165 0.839341206 0.847110006 | 0.839341206 0.933126165 0.847110006 | 0.847110006 0.847110006 0.931883157 ]  
~ normamps=205 

New Linecode.BT_1/0AAAC_ACSR_6_1 nphases=2 units=km
~ rmatrix = [ 0.7601 0.16622 | 0.16622 0.756766 ]  
~ xmatrix = [ 0.854769 0.493465 | 0.493465 0.856649 ]  
~ cmatrix = [ 9.38147 -2.91027 | -2.91027 9.235449999999998 ]
~ normamps=205 

New Linecode.BT_1/0AAAC_ACSR_6_3 nphases=3 units=km
~ rmatrix = [ 0.71224363 0.059229335 0.059229335 | 0.059229335 0.71224363 0.059229335 | 0.059229335 0.059229335 0.697513984 ]  
~ xmatrix = [ 0.933126165 0.839341206 0.847110006 | 0.839341206 0.933126165 0.847110006 | 0.847110006 0.847110006 0.931883157 ]  
~ normamps=205 

New Linecode.BT_1/0AAAC_CO_TR_1/0_1 nphases=2 units=km
~ rmatrix = [ 0.719415 0.12575 | 0.12575 0.716513 ]  
~ xmatrix = [ 0.60312 0.245503 | 0.245503 0.612319 ]  
~ cmatrix = [ 9.54795 -2.75593 | -2.75593 9.37852 ]
~ normamps=205 

New Linecode.BT_1/0AAAC_NE_NE_1 nphases=2 units=km
~ rmatrix = [ 0.1971 0.194803 | 0.194803 0.192543 ]  
~ xmatrix = [ 0.721362 0.361938 | 0.361938 0.726975 ]  
~ cmatrix = [ 9.49193 -2.80787 | -2.80787 9.330369999999998 ]
~ normamps=205 

New Linecode.BT_1/0AAC_AAAC_2_3 nphases=3 units=km
~ rmatrix = [ 0.71224363 0.059229335 0.059229335 | 0.059229335 0.71224363 0.059229335 | 0.059229335 0.059229335 0.697513984 ]  
~ xmatrix = [ 0.933126165 0.839341206 0.847110006 | 0.839341206 0.933126165 0.847110006 | 0.847110006 0.847110006 0.931883157 ]  
~ normamps=180 

New Linecode.BT_1/0AAC_AAAC_246.9_1 nphases=2 units=km
~ rmatrix = [ 0.659721 0.097439 | 0.097439 0.657572 ]  
~ xmatrix = [ 0.585601 0.222349 | 0.222349 0.595558 ]  
~ cmatrix = [ 9.44902 -2.64506 | -2.64506 9.278450000000001 ]
~ normamps=180 

New Linecode.BT_1/0AAC_ACSR_1/0_3 nphases=3 units=km
~ rmatrix = [ 0.71224363 0.059229335 0.059229335 | 0.059229335 0.71224363 0.059229335 | 0.059229335 0.059229335 0.71224363 ]  
~ xmatrix = [ 0.933126165 0.839341206 0.84922312 | 0.839341206 0.933126165 0.84922312 | 0.84922312 0.84922312 0.933126165 ]  
~ normamps=247 

New Linecode.BT_1/0AAC_ACSR_2_1 nphases=2 units=km
~ rmatrix = [ 0.749956 0.186603 | 0.186603 0.745676 ]  
~ xmatrix = [ 0.74088 0.375257 | 0.375257 0.74613 ]  
~ cmatrix = [ 9.24577 -2.83364 | -2.83364 9.10349 ]
~ normamps=247 

New Linecode.BT_1/0AAC_ACSR_6_1 nphases=2 units=km
~ rmatrix = [ 0.729096 0.16622 | 0.16622 0.725762 ]  
~ xmatrix = [ 0.860785 0.493465 | 0.493465 0.862665 ]  
~ cmatrix = [ 9.24522 -2.83415 | -2.83415 9.103019999999999 ]
~ normamps=247 

New Linecode.BT_1/0AAC_ACSR_6_3 nphases=3 units=km
~ rmatrix = [ 0.71224363 0.059229335 0.059229335 | 0.059229335 0.71224363 0.059229335 | 0.059229335 0.059229335 0.71224363 ]  
~ xmatrix = [ 0.933126165 0.839341206 0.84922312 | 0.839341206 0.933126165 0.84922312 | 0.84922312 0.84922312 0.933126165 ]  
~ normamps=247 

New Linecode.BT_1/0AAC_ACSR_6_6 nphases=2 units=km
~ rmatrix = [ 0.71224363 0.059229335 0.059229335 | 0.059229335 0.71224363 0.059229335 | 0.059229335 0.059229335 0.71224363 ]  
~ xmatrix = [ 0.933126165 0.839341206 0.84922312 | 0.839341206 0.933126165 0.84922312 | 0.84922312 0.84922312 0.933126165 ]  
~ normamps=247 

New Linecode.BT_1/0AAC_ACSR_8_6 nphases=2 units=km
~ rmatrix = [ 0.71224363 0.059229335 0.059229335 | 0.059229335 0.71224363 0.059229335 | 0.059229335 0.059229335 0.764760721 ]  
~ xmatrix = [ 0.933126165 0.839341206 0.846861405 | 0.839341206 0.839341206 0.846861405 | 0.846861405 0.846861405 0.927594779 ]  
~ normamps=247 

New Linecode.BT_1/0ACSR_AAAC_1/0_1 nphases=2 units=km
~ rmatrix = [ 0.757104 0.174279 | 0.174279 0.752958 ]  
~ xmatrix = [ 0.733717 0.300464 | 0.300464 0.741175 ]  
~ cmatrix = [ 8.05932 -2.03572 | -2.03572 7.93697 ]
~ normamps=242 

New Linecode.BT_1/0ACSR_AAAC_123.3_1 nphases=2 units=km
~ rmatrix = [ 0.752844 0.170071 | 0.170071 0.7488 ]  
~ xmatrix = [ 0.727102 0.293951 | 0.293951 0.734762 ]  
~ cmatrix = [ 8.05954 -2.03552 | -2.03552 7.93716 ]
~ normamps=242 

New Linecode.BT_1/0ACSR_AAAC_2_1 nphases=2 units=km
~ rmatrix = [ 0.777834 0.194803 | 0.194803 0.773276 ]  
~ xmatrix = [ 0.79612 0.361938 | 0.361938 0.801732 ]  
~ cmatrix = [ 8.030199999999999 -2.06295 | -2.06295 7.9115 ]
~ normamps=242 

New Linecode.BT_1/0ACSR_AAAC_246.9_1 nphases=2 units=km
~ rmatrix = [ 0.679259 0.097439 | 0.097439 0.677109 ]  
~ xmatrix = [ 0.654343 0.222349 | 0.222349 0.664299 ]  
~ cmatrix = [ 8.10726 -1.9908899999999998 | -1.9908899999999998 7.978880000000001 ]
~ normamps=242 

New Linecode.BT_1/0ACSR_ACSR_1/0_1 nphases=2 units=km
~ rmatrix = [ 0.740131 0.157563 | 0.157563 0.736494 ]  
~ xmatrix = [ 0.741836 0.308492 | 0.308492 0.749112 ]  
~ cmatrix = [ 7.94882 -2.13905 | -2.13905 7.840349999999999 ]
~ normamps=242 

New Linecode.BT_1/0ACSR_ACSR_1/0_3 nphases=3 units=km
~ rmatrix = [ 0.71224363 0.059229335 0.059229335 | 0.059229335 0.71224363 0.059229335 | 0.059229335 0.059229335 0.764760721 ]  
~ xmatrix = [ 0.933126165 0.839341206 0.846861405 | 0.839341206 0.933126165 0.846861405 | 0.846861405 0.846861405 0.927594779 ]  
~ normamps=242 

New Linecode.BT_1/0ACSR_ACSR_1/0_4 nphases=3 units=km
~ rmatrix = [ 1844308224.0 0.1533704832 0.1533704832 0.1533704832 | 0.1533704832 1844308224.0 0.1533704832 0.1533704832 | 0.1533704832 0.1533704832 19888273152.0 0.1533704832 | 0.1533704832 0.1533704832 0.1533704832 19888273152.0 ]  
~ xmatrix = [ 24162690816.0 2173419072.0 21928921344.0 21928921344.0 | 2173419072.0 24162690816.0 21928921344.0 21928921344.0 | 21928921344.0 21928921344.0 240194592.0 21928921344.0 | 21928921344.0 21928921344.0 21928921344.0 240194592.0 ]  
~ normamps=242 

New Linecode.BT_1/0ACSR_ACSR_1/0_6 nphases=2 units=km
~ rmatrix = [ 0.71224363 0.059229335 0.059229335 | 0.059229335 0.71224363 0.059229335 | 0.059229335 0.059229335 0.764760721 ]  
~ xmatrix = [ 0.933126165 0.839341206 0.846861405 | 0.839341206 0.933126165 0.846861405 | 0.846861405 0.846861405 0.927594779 ]  
~ normamps=242 

New Linecode.BT_1/0ACSR_ACSR_123.3_1 nphases=2 units=km
~ rmatrix = [ 0.769494 0.186603 | 0.186603 0.765214 ]  
~ xmatrix = [ 0.809622 0.375257 | 0.375257 0.814872 ]  
~ cmatrix = [ 7.942660000000001 -2.1448 | -2.1448 7.83497 ]
~ normamps=242 

New Linecode.BT_1/0ACSR_ACSR_2/0_1 nphases=2 units=km
~ rmatrix = [ 0.722245 0.1399 | 0.1399 0.71905 ]  
~ xmatrix = [ 0.717876 0.284904 | 0.284904 0.72589 ]  
~ cmatrix = [ 7.961899999999999 -2.12681 | -2.12681 7.851800000000001 ]
~ normamps=242 

New Linecode.BT_1/0ACSR_ACSR_2_1 nphases=2 units=km
~ rmatrix = [ 0.769494 0.186603 | 0.186603 0.765214 ]  
~ xmatrix = [ 0.809622 0.375257 | 0.375257 0.814872 ]  
~ cmatrix = [ 7.942660000000001 -2.1448 | -2.1448 7.83497 ]
~ normamps=242 

New Linecode.BT_1/0ACSR_ACSR_2_3 nphases=3 units=km
~ rmatrix = [ 0.71224363 0.059229335 0.059229335 | 0.059229335 0.71224363 0.059229335 | 0.059229335 0.059229335 0.764760721 ]  
~ xmatrix = [ 0.933126165 0.839341206 0.846861405 | 0.839341206 0.933126165 0.846861405 | 0.846861405 0.846861405 0.927594779 ]  
~ normamps=242 

New Linecode.BT_1/0ACSR_ACSR_2_4 nphases=3 units=km
~ rmatrix = [ 0.7122 0.059229 0.059229 0.059229 | 0.059229 0.7122 0.059229 0.059229 | 0.059229 0.059229 0.76805 0.059229 | 0.059229 0.059229 0.059229 0.76805 ]  
~ xmatrix = [ 0.933 0.8393 0.846861 0.846861 | 0.8393 0.933126 0.846861 0.846861 | 0.846861 0.846861 0.92759 0.846861 | 0.846861 0.846861 0.846861 0.92759 ]  
~ normamps=242 

New Linecode.BT_1/0ACSR_ACSR_2_6 nphases=2 units=km
~ rmatrix = [ 0.71224363 0.059229335 0.059229335 | 0.059229335 0.71224363 0.059229335 | 0.059229335 0.059229335 0.764760721 ]  
~ xmatrix = [ 0.933126165 0.839341206 0.846861405 | 0.839341206 0.933126165 0.846861405 | 0.846861405 0.846861405 0.927594779 ]  
~ normamps=242 

New Linecode.BT_1/0ACSR_ACSR_6_1 nphases=2 units=km
~ rmatrix = [ 0.748633 0.16622 | 0.16622 0.7453 ]  
~ xmatrix = [ 0.929527 0.493465 | 0.493465 0.931407 ]  
~ cmatrix = [ 7.9422299999999995 -2.1452099999999996 | -2.1452099999999996 7.83459 ]
~ normamps=242 

New Linecode.BT_1/0ACSR_ACSR_6_3 nphases=3 units=km
~ rmatrix = [ 0.71224363 0.059229335 0.059229335 | 0.059229335 0.71224363 0.059229335 | 0.059229335 0.059229335 0.764760721 ]  
~ xmatrix = [ 0.933126165 0.839341206 0.846861405 | 0.839341206 0.933126165 0.846861405 | 0.846861405 0.846861405 0.927594779 ]  
~ normamps=242 

New Linecode.BT_1/0ACSR_ACSR_6_6 nphases=2 units=km
~ rmatrix = [ 0.71224363 0.059229335 0.059229335 | 0.059229335 0.71224363 0.059229335 | 0.059229335 0.059229335 0.764760721 ]  
~ xmatrix = [ 0.933126165 0.839341206 0.846861405 | 0.839341206 0.933126165 0.846861405 | 0.846861405 0.846861405 0.927594779 ]  
~ normamps=242 

New Linecode.BT_1/0ACSR_ACSR_8_1 nphases=2 units=km
~ rmatrix = [ 0.718114 0.136196 | 0.136196 0.715763 ]  
~ xmatrix = [ 0.966988 0.530431 | 0.530431 0.967884 ]  
~ cmatrix = [ 7.96184 -2.12687 | -2.12687 7.8517399999999995 ]
~ normamps=242 

New Linecode.BT_1/0ACSR_CO_TR_1/0_1 nphases=2 units=km
~ rmatrix = [ 0.706773 0.124597 | 0.124597 0.703914 ]  
~ xmatrix = [ 0.681183 0.248762 | 0.248762 0.690291 ]  
~ cmatrix = [ 8.056799999999999 -2.03808 | -2.03808 7.934760000000001 ]
~ normamps=242 

New Linecode.BT_1/0ACSR_CO_TR_1/0_3 nphases=3 units=km
~ rmatrix = [ 0.71224363 0.059229335 0.059229335 | 0.059229335 0.71224363 0.059229335 | 0.059229335 0.059229335 0.764760721 ]  
~ xmatrix = [ 0.933126165 0.839341206 0.846861405 | 0.839341206 0.933126165 0.846861405 | 0.846861405 0.846861405 0.927594779 ]  
~ normamps=242 

New Linecode.BT_1/0ACSR_NE_NE_1 nphases=2 units=km
~ rmatrix = [ 0.159397 0.157563 | 0.157563 0.155761 ]  
~ xmatrix = [ 0.667079 0.308492 | 0.308492 0.674354 ]  
~ cmatrix = [ 9.38972 -2.9026199999999998 | -2.9026199999999998 9.24254 ]
~ normamps=242 

New Linecode.BT_1/0CO_SO_ACSR_2_1 nphases=2 units=km
~ rmatrix = [ 0.52896 0.186603 | 0.186603 0.52896 ]  
~ xmatrix = [ 0.726157 0.375257 | 0.375257 0.731407 ]  
~ cmatrix = [ 9.58699 -3.02567 | -3.02567 9.43507 ]
~ normamps=310 

New Linecode.BT_1/0CO_TR_AAAC_2_1 nphases=2 units=km
~ rmatrix = [ 0.53179 0.186603 | 0.186603 0.52751 ]  
~ xmatrix = [ 0.736402 0.375257 | 0.375257 0.741652 ]  
~ cmatrix = [ 9.346770000000001 -2.89 | -2.89 9.20166 ]
~ normamps=265 

New Linecode.BT_1/0CO_TR_AAAC_6_6 nphases=2 units=km
~ rmatrix = [ 0.388067122 0.059229335 0.059229335 | 0.059229335 0.388067122 0.059229335 | 0.059229335 0.059229335 0.388067122 ]  
~ xmatrix = [ 0.933250466 0.839838409 0.849720323 | 0.839838409 0.933250466 0.849720323 | 0.849720323 0.849720323 0.933250466 ]  
~ normamps=265 

New Linecode.BT_1/0CO_TR_ACSR_1/0_3 nphases=3 units=km
~ rmatrix = [ 0.388067122 0.059229335 0.059229335 | 0.059229335 0.388067122 0.059229335 | 0.059229335 0.059229335 0.388067122 ]  
~ xmatrix = [ 0.933250466 0.839838409 0.849720323 | 0.839838409 0.933250466 0.849720323 | 0.849720323 0.849720323 0.933250466 ]  
~ normamps=265 

New Linecode.BT_1/0CO_TR_ACSR_123.3_1 nphases=2 units=km
~ rmatrix = [ 0.388067122 0.059229335 0.059229335 | 0.059229335 0.388067122 0.059229335 | 0.059229335 0.059229335 0.388067122 ]  
~ xmatrix = [ 0.933250466 0.839838409 0.849720323 | 0.839838409 0.933250466 0.849720323 | 0.849720323 0.849720323 0.933250466 ]  
~ normamps=265 

New Linecode.BT_1/0CO_TR_ACSR_2_1 nphases=2 units=km
~ rmatrix = [ 0.53179 0.186603 | 0.186603 0.52751 ]  
~ xmatrix = [ 0.736402 0.375257 | 0.375257 0.741652 ]  
~ cmatrix = [ 9.346770000000001 -2.89 | -2.89 9.20166 ]
~ normamps=265 

New Linecode.BT_1/0CO_TR_ACSR_2_3 nphases=3 units=km
~ rmatrix = [ 0.388067122 0.059229335 0.059229335 | 0.059229335 0.388067122 0.059229335 | 0.059229335 0.059229335 0.388067122 ]  
~ xmatrix = [ 0.933250466 0.839838409 0.849720323 | 0.839838409 0.933250466 0.849720323 | 0.849720323 0.849720323 0.933250466 ]  
~ normamps=265 

New Linecode.BT_1/0CO_TR_CO_TR_1/0_1 nphases=2 units=km
~ rmatrix = [ 0.46907 0.124597 | 0.124597 0.466211 ]  
~ xmatrix = [ 0.607963 0.248762 | 0.248762 0.617072 ]  
~ cmatrix = [ 9.489370000000001 -2.7577700000000003 | -2.7577700000000003 9.324259999999999 ]
~ normamps=230 

New Linecode.BT_1/0CO_TR_CO_TR_1/0_3 nphases=3 units=km
~ rmatrix = [ 0.388067122 0.059229335 0.059229335 | 0.059229335 0.388067122 0.059229335 | 0.059229335 0.059229335 0.388067122 ]  
~ xmatrix = [ 0.933250466 0.839838409 0.849720323 | 0.839838409 0.933250466 0.849720323 | 0.849720323 0.849720323 0.933250466 ]  
~ normamps=265 

New Linecode.BT_1/0CO_TR_CO_TR_1/0_4 nphases=3 units=km
~ rmatrix = [ 0.387984172 0.059216675 0.059216675 0.059216675 | 0.059216675 0.387984172 0.059216675 0.059216675 | 0.059216675 0.059216675 0.387984172 0.059216675 | 0.059216675 0.059216675 0.059216675 0.387984172 ]  
~ xmatrix = [ 0.933050982 0.839658892 0.849538694 0.849538694 | 0.839658892 0.933050982 0.849538694 0.849538694 | 0.849538694 0.849538694 0.933050982 0.849538694 | 0.849538694 0.849538694 0.849538694 0.933050982 ]  
~ normamps=230 

New Linecode.BT_1/0CO_TR_CO_TR_1/0_6 nphases=2 units=km
~ rmatrix = [ 0.402248 0.0592176 | 0.0592176 0.402248 ]  
~ xmatrix = [ 0.933051 0.514631 | 0.514631 0.933051 ]  
~ normamps=230 

New Linecode.BT_1/0CobreTrensado_CO_TR_1/0_1 nphases=2 units=km
~ rmatrix = [ 0.46907 0.124597 | 0.124597 0.466211 ]  
~ xmatrix = [ 0.607963 0.248762 | 0.248762 0.617072 ]  
~ cmatrix = [ 9.489370000000001 -2.7577700000000003 | -2.7577700000000003 9.324259999999999 ]
~ normamps=230 

New Linecode.BT_123.3AAAC_AAAC_123.3_1 nphases=2 units=km
~ rmatrix = [ 0.734611 0.170071 | 0.170071 0.730567 ]  
~ xmatrix = [ 0.65222 0.293951 | 0.293951 0.65988 ]  
~ cmatrix = [ 9.53183 -2.7751099999999997 | -2.7751099999999997 9.364980000000001 ]
~ normamps=256 

New Linecode.BT_123.3AAAC_AAAC_123.3_3 nphases=3 units=km
~ rmatrix = [ 0.734611 0.170071 | 0.170071 0.730567 ]  
~ xmatrix = [ 0.65222 0.293951 | 0.293951 0.65988 ]  
~ cmatrix = [ 9.53183 -2.7751099999999997 | -2.7751099999999997 9.364980000000001 ]
~ normamps=256 

New Linecode.BT_123.3AAAC_AAAC_123.3_4 nphases=3 units=km
~ rmatrix = [ 0.683157 0.122858 0.122858 | 0.122858 0.687631 0.122858 | 0.122858 0.122858 0.683157 ]  
~ xmatrix = [ 0.752378 0.35053 0.268771 | 0.35053 0.752378 0.293264 | 0.268771 0.293264 0.752378 ]  
~ cmatrix = [ 8.37276 -2.59639 -0.9839110000000001 | -2.59639 8.645669999999999 -1.5338699999999998 | -0.9839110000000001 -1.5338699999999998 7.865169999999999 ]
~ normamps=256 

New Linecode.BT_123.3AAAC_AAAC_195.7_1 nphases=2 units=km
~ rmatrix = [ 0.679262 0.115432 | 0.115432 0.676629 ]  
~ xmatrix = [ 0.59262 0.235291 | 0.235291 0.602146 ]  
~ cmatrix = [ 9.571110000000001 -2.7386899999999996 | -2.7386899999999996 9.398739999999998 ]
~ normamps=256 

New Linecode.BT_123.3AAAC_AAAC_246.9_1 nphases=2 units=km
~ rmatrix = [ 0.661025 0.097439 | 0.097439 0.658876 ]  
~ xmatrix = [ 0.579462 0.222349 | 0.222349 0.589418 ]  
~ cmatrix = [ 9.59221 -2.7191300000000003 | -2.7191300000000003 9.416870000000001 ]
~ normamps=256 

New Linecode.BT_123.3AAAC_AAAC_77.4_1 nphases=2 units=km
~ rmatrix = [ 0.760017 0.195216 | 0.195216 0.755453 ]  
~ xmatrix = [ 0.723102 0.363774 | 0.363774 0.72866 ]  
~ cmatrix = [ 9.495230000000001 -2.80904 | -2.80904 9.33353 ]
~ normamps=256 

New Linecode.BT_123.3AAAC_ACSR_123.3_1 nphases=2 units=km
~ rmatrix = [ 0.734611 0.170071 | 0.170071 0.730567 ]  
~ xmatrix = [ 0.65222 0.293951 | 0.293951 0.65988 ]  
~ cmatrix = [ 9.53183 -2.7751099999999997 | -2.7751099999999997 9.364980000000001 ]
~ normamps=256 

New Linecode.BT_123.3AAAC_ACSR_123.3_3 nphases=3 units=km
~ rmatrix = [ 0.734611 0.170071 | 0.170071 0.730567 ]  
~ xmatrix = [ 0.65222 0.293951 | 0.293951 0.65988 ]  
~ cmatrix = [ 9.53183 -2.7751099999999997 | -2.7751099999999997 9.364980000000001 ]
~ normamps=256 

New Linecode.BT_123.3AAAC_ACSR_2_1 nphases=2 units=km
~ rmatrix = [ 0.760017 0.195216 | 0.195216 0.755453 ]  
~ xmatrix = [ 0.723102 0.363774 | 0.363774 0.72866 ]  
~ cmatrix = [ 9.495230000000001 -2.80904 | -2.80904 9.33353 ]
~ normamps=256 

New Linecode.BT_123.3ACSR_ACSR_77.4_1 nphases=2 units=km
~ rmatrix = [ 0.679262 0.115432 | 0.115432 0.676629 ]  
~ xmatrix = [ 0.59262 0.235291 | 0.235291 0.602146 ]  
~ cmatrix = [ 9.571110000000001 -2.7386899999999996 | -2.7386899999999996 9.398739999999998 ]
~ normamps=256 

New Linecode.BT_123.3CO_TR_CO_TR_1/0_1 nphases=2 units=km
~ rmatrix = [ 0.689715 0.12575 | 0.12575 0.686813 ]  
~ xmatrix = [ 0.602996 0.245503 | 0.245503 0.612196 ]  
~ cmatrix = [ 9.55086 -2.75747 | -2.75747 9.38134 ]
~ normamps=256 

New Linecode.BT_2AAAC_ACSR_2_1 nphases=2 units=km
~ rmatrix = [ 11519.0 0.194803 | 0.194803 114734.0 ]  
~ xmatrix = [ 0.801012 0.361938 | 0.361938 0.806625 ]  
~ cmatrix = [ 7.950850000000001 -2.02513 | -2.02513 7.83434 ]
~ normamps=191 

New Linecode.BT_2ACSR_AAAC_123.3_1 nphases=2 units=km
~ rmatrix = [ 112691.0 0.170071 | 0.170071 112287.0 ]  
~ xmatrix = [ 0.731994 0.293951 | 0.293951 0.739654 ]  
~ cmatrix = [ 7.979780000000001 -1.9980699999999998 | -1.9980699999999998 7.859649999999999 ]
~ normamps=184 

New Linecode.BT_2ACSR_AAAC_77.4_1 nphases=2 units=km
~ rmatrix = [ 115232.0 0.195216 | 0.195216 114775.0 ]  
~ xmatrix = [ 0.802876 0.363774 | 0.363774 0.808434 ]  
~ cmatrix = [ 7.951180000000001 -2.02483 | -2.02483 0.0 ]
~ normamps=184 

New Linecode.BT_2ACSR_ACSR_2_1 nphases=2 units=km
~ rmatrix = [ 114356.0 0.186603 | 0.186603 113928.0 ]  
~ xmatrix = [ 0.814514 0.375257 | 0.375257 0.819764 ]  
~ cmatrix = [ 7.864529999999999 -2.10588 | -2.10588 7.7588 ]
~ normamps=150 

New Linecode.BT_2ACSR_ACSR_2_3 nphases=3 units=km
~ rmatrix = [ 110893.0 0.05856 0.05856 | 0.05856 110893.0 0.05856 | 0.05856 0.05856 11551875.0 ]  
~ xmatrix = [ 0.960625 0.863125 0.87 | 0.863125 0.960625 0.87 | 0.87 0.87 0.9501875 ]  
~ normamps=150 

New Linecode.BT_2ACSR_ACSR_2_4 nphases=3 units=km
~ rmatrix = [ 110273.0 0.05929 0.05929 0.05929 | 0.05929 110273.0 0.05929 0.05929 | 0.05929 0.05929 1161839.0 0.05929 | 0.05929 0.05929 0.05929 1161839.0 ]  
~ xmatrix = [ 0.955251 0.858297 0.858297 0.858297 | 0.858297 0.955251 0.858297 0.858297 | 0.858297 0.858297 0.955251 0.858297 | 0.858297 0.858297 0.858297 0.955251 ]  
~ normamps=135 

New Linecode.BT_2ACSR_ACSR_6_1 nphases=2 units=km
~ rmatrix = [ 114356.0 0.186603 | 0.186603 113928.0 ]  
~ xmatrix = [ 0.814514 0.375257 | 0.375257 0.819764 ]  
~ cmatrix = [ 7.864529999999999 -2.10588 | -2.10588 7.7588 ]
~ normamps=184 

New Linecode.BT_2ACSR_ACSR_6_3 nphases=3 units=km
~ rmatrix = [ 110893.0 0.05856 0.05856 | 0.05856 110893.0 0.05856 | 0.05856 0.05856 11551875.0 ]  
~ xmatrix = [ 0.960625 0.863125 0.87 | 0.863125 0.960625 0.87 | 0.87 0.87 0.9501875 ]  
~ normamps=150 

New Linecode.BT_2ACSR_NE_NE_1 nphases=2 units=km
~ rmatrix = [ 114356.0 0.186603 | 0.186603 113928.0 ]  
~ xmatrix = [ 0.814514 0.375257 | 0.375257 0.819764 ]  
~ cmatrix = [ 7.864529999999999 -2.10588 | -2.10588 7.7588 ]
~ normamps=150 

New Linecode.BT_2CO_SO_ACSR_2_6 nphases=2 units=km
~ rmatrix = [ 0.71224363 0.059229335 0.059229335 | 0.059229335 0.71224363 0.059229335 | 0.059229335 0.059229335 0.71224363 ]  
~ xmatrix = [ 0.933126165 0.839341206 0.84922312 | 0.839341206 0.933126165 0.84922312 | 0.84922312 0.84922312 0.933126165 ]  
~ normamps=247 

New Linecode.BT_2CO_TR_CO_TR_1/0_1 nphases=2 units=km
~ rmatrix = [ 114356.0 0.186603 | 0.186603 113928.0 ]  
~ xmatrix = [ 0.814514 0.375257 | 0.375257 0.819764 ]  
~ cmatrix = [ 7.864529999999999 -2.10588 | -2.10588 7.7588 ]
~ normamps=150 

New Linecode.BT_2/0ACSR_ACSR_2/0_1 nphases=2 units=km
~ rmatrix = [ 0.603787 0.1399 | 0.1399 0.600592 ]  
~ xmatrix = [ 0.707766 0.284904 | 0.284904 0.715779 ]  
~ cmatrix = [ 8.12924 -2.21031 | -2.21031 8.01481 ]
~ normamps=276 

New Linecode.BT_4ACSR_ACSR_4_1 nphases=2 units=km
~ rmatrix = [ 166587.0 0.187005 | 0.187005 166177.0 ]  
~ xmatrix = [ 0.878068 0.441203 | 0.441203 0.881403 ]  
~ cmatrix = [ 7.922149999999999 -2.12854 | -2.12854 7.81456 ]
~ normamps=140 

New Linecode.BT_4ACSR_ACSR_4_3 nphases=3 units=km
~ rmatrix = [ 173947.0 0.05923 0.05923 | 0.05923 173947.0 0.05923 | 0.05923 0.05923 17590625.0 ]  
~ xmatrix = [ 0.978 0.87606 0.8850625 | 0.87606 0.978 0.8850625 | 0.8850625 0.8850625 0.967875 ]  
~ normamps=115 

New Linecode.BT_6AAAC_AAAC_123.3_3 nphases=3 units=km
~ rmatrix = [ 27160625.0 0.0595625 0.0595625 | 0.0595625 27160625.0 0.0595625 | 0.0595625 0.0595625 2719375.0 ]  
~ xmatrix = [ 0.99493 0.8883125 0.899625 | 0.8883125 0.99493 0.899625 | 0.899625 0.899625 0.9848125 ]  
~ normamps=85 

New Linecode.BT_6AAAC_AAAC_123.3_6 nphases=2 units=km
~ rmatrix = [ 27160625.0 0.0595625 0.0595625 | 0.0595625 27160625.0 0.0595625 | 0.0595625 0.0595625 2719375.0 ]  
~ xmatrix = [ 0.99493 0.8883125 0.899625 | 0.8883125 0.99493 0.899625 | 0.899625 0.899625 0.9848125 ]  
~ normamps=85 

New Linecode.BT_6AAAC_AAAC_6_3 nphases=3 units=km
~ rmatrix = [ 27160625.0 0.0595625 0.0595625 | 0.0595625 27160625.0 0.0595625 | 0.0595625 0.0595625 2719375.0 ]  
~ xmatrix = [ 0.99493 0.8883125 0.899625 | 0.8883125 0.99493 0.899625 | 0.899625 0.899625 0.9848125 ]  
~ normamps=85 

New Linecode.BT_6AAAC_AAAC_6_6 nphases=2 units=km
~ rmatrix = [ 27160625.0 0.0595625 0.0595625 | 0.0595625 27160625.0 0.0595625 | 0.0595625 0.0595625 2719375.0 ]  
~ xmatrix = [ 0.99493 0.8883125 0.899625 | 0.8883125 0.99493 0.899625 | 0.899625 0.899625 0.9848125 ]  
~ normamps=85 

New Linecode.BT_6AAAC_ACSR_2_3 nphases=3 units=km
~ rmatrix = [ 27160625.0 0.0595625 0.0595625 | 0.0595625 27160625.0 0.0595625 | 0.0595625 0.0595625 2719375.0 ]  
~ xmatrix = [ 0.99493 0.8883125 0.899625 | 0.8883125 0.99493 0.899625 | 0.899625 0.899625 0.9848125 ]  
~ normamps=85 

New Linecode.BT_6AAAC_ACSR_2_6 nphases=2 units=km
~ rmatrix = [ 27160625.0 0.0595625 0.0595625 | 0.0595625 27160625.0 0.0595625 | 0.0595625 0.0595625 2719375.0 ]  
~ xmatrix = [ 0.99493 0.8883125 0.899625 | 0.8883125 0.99493 0.899625 | 0.899625 0.899625 0.9848125 ]  
~ normamps=85 

New Linecode.BT_6AAAC_ACSR_6_3 nphases=3 units=km
~ rmatrix = [ 27160625.0 0.0595625 0.0595625 | 0.0595625 27160625.0 0.0595625 | 0.0595625 0.0595625 2719375.0 ]  
~ xmatrix = [ 0.99493 0.8883125 0.899625 | 0.8883125 0.99493 0.899625 | 0.899625 0.899625 0.9848125 ]  
~ normamps=85 

New Linecode.BT_6AAAC_ACSR_6_6 nphases=2 units=km
~ rmatrix = [ 27160625.0 0.0595625 0.0595625 | 0.0595625 27160625.0 0.0595625 | 0.0595625 0.0595625 2719375.0 ]  
~ xmatrix = [ 0.99493 0.8883125 0.899625 | 0.8883125 0.99493 0.899625 | 0.899625 0.899625 0.9848125 ]  
~ normamps=85 

New Linecode.BT_6AAAC_CO_TR_1/0_6 nphases=2 units=km
~ rmatrix = [ 27160625.0 0.0595625 0.0595625 | 0.0595625 27160625.0 0.0595625 | 0.0595625 0.0595625 2719375.0 ]  
~ xmatrix = [ 0.99493 0.8883125 0.899625 | 0.8883125 0.99493 0.899625 | 0.899625 0.899625 0.9848125 ]  
~ normamps=110 

New Linecode.BT_6ACSR_AAAC_123.3_3 nphases=3 units=km
~ rmatrix = [ 27160625.0 0.0595625 0.0595625 | 0.0595625 27160625.0 0.0595625 | 0.0595625 0.0595625 2719375.0 ]  
~ xmatrix = [ 0.99493 0.8883125 0.899625 | 0.8883125 0.99493 0.899625 | 0.899625 0.899625 0.9848125 ]  
~ normamps=85 

New Linecode.BT_6ACSR_AAAC_6_3 nphases=3 units=km
~ rmatrix = [ 27160625.0 0.0595625 0.0595625 | 0.0595625 27160625.0 0.0595625 | 0.0595625 0.0595625 2719375.0 ]  
~ xmatrix = [ 0.99493 0.8883125 0.899625 | 0.8883125 0.99493 0.899625 | 0.899625 0.899625 0.9848125 ]  
~ normamps=85 

New Linecode.BT_6ACSR_ACSR_1/0_1 nphases=2 units=km
~ rmatrix = [ 243266.0 0.16622 | 0.16622 242933.0 ]  
~ xmatrix = [ 0.934777 0.493465 | 0.493465 0.936657 ]  
~ cmatrix = [ 7.85857 -2.10354 | -2.10354 7.75303 ]
~ normamps=105 

New Linecode.BT_6ACSR_ACSR_1/0_3 nphases=3 units=km
~ rmatrix = [ 27160625.0 0.0595625 0.0595625 | 0.0595625 27160625.0 0.0595625 | 0.0595625 0.0595625 2719375.0 ]  
~ xmatrix = [ 0.99493 0.8883125 0.899625 | 0.8883125 0.99493 0.899625 | 0.899625 0.899625 0.9848125 ]  
~ normamps=85 

New Linecode.BT_6ACSR_ACSR_2_1 nphases=2 units=km
~ rmatrix = [ 245352.0 0.186603 | 0.186603 244924.0 ]  
~ xmatrix = [ 0.814872 0.375257 | 0.375257 0.820122 ]  
~ cmatrix = [ 7.859 -2.10314 | -2.10314 7.7534 ]
~ normamps=85 

New Linecode.BT_6ACSR_ACSR_2_3 nphases=3 units=km
~ rmatrix = [ 27160625.0 0.0595625 0.0595625 | 0.0595625 27160625.0 0.0595625 | 0.0595625 0.0595625 2719375.0 ]  
~ xmatrix = [ 0.99493 0.8883125 0.899625 | 0.8883125 0.99493 0.899625 | 0.899625 0.899625 0.9848125 ]  
~ normamps=85 

New Linecode.BT_6ACSR_ACSR_2_4 nphases=3 units=km
~ rmatrix = [ 27160625.0 0.0595625 0.0595625 0.0595625 | 0.0595625 27160625.0 0.0595625 0.0595625 | 0.0595625 0.0595625 275375.0 0.0595625 | 0.0595625 0.0595625 0.0595625 275375.0 ]  
~ xmatrix = [ 0.9949375 0.8883125 0.851625 0.851625 | 0.8883125 0.938375 0.851625 0.851625 | 0.851625 0.851625 0.9328125 0.851625 | 0.851625 0.851625 0.851625 0.9328125 ]  
~ normamps=75 

New Linecode.BT_6ACSR_ACSR_2_6 nphases=2 units=km
~ rmatrix = [ 27160625.0 0.0595625 0.0595625 | 0.0595625 27160625.0 0.0595625 | 0.0595625 0.0595625 2719375.0 ]  
~ xmatrix = [ 0.99493 0.8883125 0.899625 | 0.8883125 0.99493 0.899625 | 0.899625 0.899625 0.9848125 ]  
~ normamps=85 

New Linecode.BT_6ACSR_ACSR_6_1 nphases=2 units=km
~ rmatrix = [ 243266.0 0.16622 | 0.16622 242933.0 ]  
~ xmatrix = [ 0.934777 0.493465 | 0.493465 0.936657 ]  
~ cmatrix = [ 7.85857 -2.10354 | -2.10354 7.75303 ]
~ normamps=85 

New Linecode.BT_6ACSR_ACSR_6_2 nphases=2 units=km
~ rmatrix = [ 270029.0 0.0592176 | 0.0592176 270357.0 ]  
~ xmatrix = [ 0.989109 0.910348 | 0.910348 0.979041 ]  
~ normamps=85 

New Linecode.BT_6ACSR_ACSR_6_3 nphases=3 units=km
~ rmatrix = [ 27160625.0 0.0595625 0.0595625 | 0.0595625 27160625.0 0.0595625 | 0.0595625 0.0595625 2719375.0 ]  
~ xmatrix = [ 0.99493 0.8883125 0.899625 | 0.8883125 0.99493 0.899625 | 0.899625 0.899625 0.9848125 ]  
~ normamps=85 

New Linecode.BT_6ACSR_ACSR_6_4 nphases=3 units=km
~ rmatrix = [ 27160625.0 0.0595625 0.0595625 0.0595625 | 0.0595625 27160625.0 0.0595625 0.0595625 | 0.0595625 0.0595625 275375.0 0.0595625 | 0.0595625 0.0595625 0.0595625 275375.0 ]  
~ xmatrix = [ 0.9949375 0.8883125 0.851625 0.851625 | 0.8883125 0.938375 0.851625 0.851625 | 0.851625 0.851625 0.9328125 0.851625 | 0.851625 0.851625 0.851625 0.9328125 ]  
~ normamps=75 
